
%chk=benzene.chk
%mem=100GB
%nproc=96
#p opt freq B3LYP/6-311++G(d,p) EmpiricalDispersion=GD3BJ

Benzene Optimization

0 1
 C   -1.211021    0.699188    0.000000
 C   -1.211021   -0.699188    0.000000
 C    0.000000   -1.398376    0.000000
 C    1.211021   -0.699188    0.000000
 C    1.211021    0.699188    0.000000
 C    0.000000    1.398376    0.000000
 H   -2.152500    1.242761    0.000000
 H   -2.152500   -1.242761    0.000000
 H    0.000000   -2.485522    0.000000
 H    2.152500   -1.242761    0.000000
 H    2.152500    1.242761    0.000000
 H    0.000000    2.485522    0.000000

 