%chk=methane.chk
%mem=100GB
%nproc=96
#p opt freq B3LYP/6-311++G(d,p) EmpiricalDispersion=GD3BJ

Methane Optimization

0 1
 C    0.000000    0.000000    0.000000
 H    0.000000    0.000000    1.089000
 H    1.026720    0.000000   -0.363000
 H   -0.513360   -0.889165   -0.363000
 H   -0.513360    0.889165   -0.363000

 